/*--------------------------------*- C++ -*----------------------------------*\
  =========                 |
  \\      /  F ield         | OpenFOAM: The Open Source CFD Toolbox
   \\    /   O peration     | Website:  https://openfoam.org
    \\  /    A nd           | Version:  6
     \\/     M anipulation  |
\*---------------------------------------------------------------------------*/
FoamFile
{
    version     2.0;
    format      ascii;
    class       volScalarField;
    object      T;
}
// * * * * * * * * * * * * * * * * * * * * * * * * * * * * * * * * * * * * * //

dimensions      [0 0 0 1 0 0 0];

internalField   uniform 0;

boundaryField
{
    INLET
    {
        type            fixedValue;
        value           uniform 1;
    }
    BACK-FRONT
    {
        type            symmetry;
    }
    OUTLET
    {
        type            zeroGradient;
    }
    GRAIN
    {
        type            dynamicRetention;
        value           uniform 0;
        RobinK          uniform 0;
        Kd              uniform 0;
        S               uniform 0;        	       
        RobinD          uniform 1e-8;
        RobinF          uniform 0;      
	forwardReaction
        {
	    type		saturatingPowerLaw;	
            S0 1;
            n 1;
        }
        
        backwardReaction
        {
	    type		constant;
        }

    }
    frontAndBackPlanes
    {
        type            empty;

    }
}


// ************************************************************************* //
